Circuit: * C:\Users\Simao\Documents\Audio Projects\Kicad projects\Sine prototype 2\Draft1.asc

Direct Newton iteration for .op point succeeded.

Date: Thu Mar 10 23:18:00 2022
Total elapsed time: 0.049 seconds.

tnom = 27
temp = 27
method = modified trap
totiter = 2093
traniter = 2090
tranpoints = 1046
accept = 1046
rejected = 0
matrix size = 6
fillins = 3
solver = Normal
Matrix Compiler1:      29 opcodes  0.1/[0.1]/0.1
Matrix Compiler2: 544 bytes object code size  0.1/0.1/[0.1]

